@<TRIPOS>MOLECULE
MOL
   30    32     1     0     0
SMALL
resp


@<TRIPOS>ATOM
      1 C1          -6.0450    -0.5860     0.0350 ca         1 MOL      -0.149692
      2 C2          -5.3290    -0.4840     1.2240 ca         1 MOL      -0.075748
      3 C3          -4.0050    -0.0600     1.2040 ca         1 MOL      -0.227652
      4 C4          -3.3850     0.2650    -0.0030 ca         1 MOL       0.234871
      5 C5          -4.1090     0.1590    -1.1900 ca         1 MOL      -0.227652
      6 C6          -5.4340    -0.2630    -1.1720 ca         1 MOL      -0.075748
      7 C7          -1.9410     0.6960    -0.0230 c3         1 MOL      -0.171835
      8 N1          -1.0750    -0.4870    -0.0510 nu         1 MOL      -0.247184
      9 C8           0.2600    -0.5210    -0.0420 ca         1 MOL       0.261226
     10 C9           0.9780    -1.7210    -0.0720 ca         1 MOL      -0.517083
     11 C10          2.3720    -1.7510    -0.0570 ca         1 MOL       0.203918
     12 C11          3.1640    -0.6190    -0.0140 ca         1 MOL      -0.454530
     13 C12          2.5040     0.6440     0.0150 ca         1 MOL       0.447231
     14 N2           2.9430     1.8820     0.0530 nc         1 MOL      -0.357525
     15 O1           1.8120     2.6530     0.0620 os         1 MOL      -0.027055
     16 N3           0.6830     1.9310     0.0300 nc         1 MOL      -0.236751
     17 C13          1.0700     0.6790     0.0010 ca         1 MOL       0.334624
     18 N4           4.5790    -0.7290    -0.0020 no         1 MOL       0.910819
     19 O2           5.0890    -1.8510    -0.0290 o          1 MOL      -0.553934
     20 O3           5.2390     0.3090     0.0360 o          1 MOL      -0.553934
     21 H1          -7.0800    -0.9140     0.0500 ha         1 MOL       0.128955
     22 H2          -5.8030    -0.7310     2.1690 ha         1 MOL       0.116823
     23 H3          -3.4490     0.0240     2.1330 ha         1 MOL       0.147653
     24 H4          -3.6320     0.4140    -2.1330 ha         1 MOL       0.147653
     25 H5          -5.9890    -0.3380    -2.1020 ha         1 MOL       0.116823
     26 H6          -1.7020     1.2930     0.8610 h1         1 MOL       0.089879
     27 H7          -1.7360     1.3160    -0.9010 h1         1 MOL       0.089879
     28 H8          -1.5470    -1.3820    -0.0890 hn         1 MOL       0.275096
     29 H9           0.4330    -2.6570    -0.1060 ha         1 MOL       0.218095
     30 H10          2.8750    -2.7100    -0.0810 ha         1 MOL       0.152778
@<TRIPOS>BOND
     1     1     2 ar  
     2     1     6 ar  
     3     1    21 1   
     4     2     3 ar  
     5     2    22 1   
     6     3     4 ar  
     7     3    23 1   
     8     4     5 ar  
     9     4     7 1   
    10     5     6 ar  
    11     5    24 1   
    12     6    25 1   
    13     7     8 1   
    14     7    26 1   
    15     7    27 1   
    16     8     9 1   
    17     8    28 1   
    18     9    10 ar  
    19     9    17 ar  
    20    10    11 ar  
    21    10    29 1   
    22    11    12 ar  
    23    11    30 1   
    24    12    13 ar  
    25    12    18 1   
    26    13    14 2   
    27    13    17 ar  
    28    14    15 1   
    29    15    16 1   
    30    16    17 2   
    31    18    19 1   
    32    18    20 1   
@<TRIPOS>SUBSTRUCTURE
     1 MOL         1 TEMP              0 ****  ****    0 ROOT
