@<TRIPOS>MOLECULE
MOL
   10     9     1     0     0
SMALL
resp


@<TRIPOS>ATOM
      1 S1           0.0000     0.2120    -0.4430 s4         1 MOL       0.324104
      2 O1           0.0000     1.5000     0.3570 o          1 MOL      -0.610470
      3 C1           1.3540    -0.8070     0.1870 c3         1 MOL      -0.203027
      4 C2          -1.3540    -0.8070     0.1870 c3         1 MOL      -0.203027
      5 H1           1.2610    -0.9110     1.2700 h1         1 MOL       0.115403
      6 H2          -2.2870    -0.2980    -0.0590 h1         1 MOL       0.115403
      7 H3           1.3320    -1.7850    -0.2990 h1         1 MOL       0.115403
      8 H4           2.2870    -0.2980    -0.0590 h1         1 MOL       0.115403
      9 H5          -1.3320    -1.7850    -0.2990 h1         1 MOL       0.115403
     10 H6          -1.2610    -0.9110     1.2700 h1         1 MOL       0.115403
@<TRIPOS>BOND
     1     1     2 2   
     2     1     3 1   
     3     1     4 1   
     4     3     5 1   
     5     3     7 1   
     6     3     8 1   
     7     4     6 1   
     8     4     9 1   
     9     4    10 1   
@<TRIPOS>SUBSTRUCTURE
     1 MOL         1 TEMP              0 ****  ****    0 ROOT
