@<TRIPOS>MOLECULE
IBT
   57    61     1     0     0
SMALL
bcc


@<TRIPOS>ATOM
      1 N            0.8410     0.1740     0.0210 nh         1 IBT      -0.952500
      2 C            2.2190     0.0330     0.1390 ca         1 IBT       0.756200
      3 N1           2.8960     1.1720     0.3780 nb         1 IBT      -0.798000
      4 C1           4.2340     1.1140     0.5020 ca         1 IBT       0.694900
      5 N2           5.0290     0.0400     0.3760 nb         1 IBT      -0.744000
      6 C2           4.3150    -1.0750     0.1410 ca         1 IBT       0.473800
      7 N3           4.8090    -2.3370    -0.0500 na         1 IBT       0.003200
      8 N4           3.8420    -3.2610    -0.2130 nc         1 IBT      -0.509100
      9 C3           2.6930    -2.5670    -0.1840 cd         1 IBT       0.434500
     10 C4           2.9360    -1.1710     0.0230 ca         1 IBT      -0.491500
     11 C5           1.4200    -3.2800    -0.2700 ca         1 IBT      -0.137900
     12 C6           1.2800    -4.5370     0.3320 ca         1 IBT      -0.088000
     13 C7           0.0260    -5.1420     0.4290 ca         1 IBT      -0.172000
     14 C8          -1.1100    -4.4540    -0.0040 ca         1 IBT       0.118100
     15 C9          -0.9630    -3.2720    -0.7220 ca         1 IBT      -0.172000
     16 C10          0.3050    -2.7130    -0.8820 ca         1 IBT      -0.088000
     17 O           -2.4020    -4.8790     0.2070 os         1 IBT      -0.249200
     18 C11         -2.6960    -5.5930     1.3500 ca         1 IBT       0.098100
     19 C12         -2.0800    -5.3920     2.5900 ca         1 IBT      -0.151500
     20 C13         -2.3690    -6.2410     3.6590 ca         1 IBT      -0.110000
     21 C14         -3.3250    -7.2430     3.5110 ca         1 IBT      -0.144000
     22 C15         -4.0090    -7.3820     2.3030 ca         1 IBT      -0.110000
     23 C16         -3.6960    -6.5560     1.2230 ca         1 IBT      -0.151500
     24 C17          6.2170    -2.6930    -0.2020 c3         1 IBT       0.050000
     25 C18          6.4610    -3.9870    -1.0070 c3         1 IBT      -0.086400
     26 C19          6.1840    -5.2680    -0.2080 c3         1 IBT      -0.106400
     27 C20          6.7750    -5.2480     1.2020 c3         1 IBT       0.084000
     28 N5           6.5300    -3.9770     1.8880 n          1 IBT      -0.443800
     29 C21          6.9430    -2.7880     1.1420 c3         1 IBT       0.071000
     30 C22          6.1060    -3.7980     3.1950 c          1 IBT       0.670300
     31 O1           6.1410    -2.7050     3.7590 o          1 IBT      -0.600100
     32 C23          5.5650    -4.9750     3.9210 ce         1 IBT      -0.214200
     33 C24          5.4990    -4.9530     5.2590 c2         1 IBT      -0.173000
     34 H            0.5740     1.1180     0.2790 hn         1 IBT       0.438800
     35 H1           0.3120    -0.5540     0.4850 hn         1 IBT       0.438800
     36 H2           4.7270     2.0530     0.7320 h5         1 IBT       0.052100
     37 H3           2.1440    -5.0380     0.7640 ha         1 IBT       0.160500
     38 H4          -0.0510    -6.1170     0.9000 ha         1 IBT       0.153500
     39 H5          -1.8380    -2.7680    -1.1290 ha         1 IBT       0.153500
     40 H6           0.3930    -1.7970    -1.4700 ha         1 IBT       0.160500
     41 H7          -1.3470    -4.6020     2.7310 ha         1 IBT       0.148500
     42 H8          -1.8400    -6.1240     4.6010 ha         1 IBT       0.136500
     43 H9          -3.5450    -7.9100     4.3400 ha         1 IBT       0.135000
     44 H10         -4.7760    -8.1440     2.1960 ha         1 IBT       0.136500
     45 H11         -4.2190    -6.6730     0.2780 ha         1 IBT       0.148500
     46 H12          6.6550    -1.8640    -0.7750 h1         1 IBT       0.094700
     47 H13          7.5130    -4.0010    -1.3200 hc         1 IBT       0.056200
     48 H14          5.8650    -3.9880    -1.9280 hc         1 IBT       0.056200
     49 H15          6.5810    -6.1290    -0.7590 hc         1 IBT       0.057700
     50 H16          5.1040    -5.4340    -0.1350 hc         1 IBT       0.057700
     51 H17          7.8640    -5.3720     1.1460 h1         1 IBT       0.053200
     52 H18          6.3980    -6.1030     1.7660 h1         1 IBT       0.053200
     53 H19          8.0240    -2.8830     0.9720 h1         1 IBT       0.076700
     54 H20          6.8010    -1.8720     1.7240 h1         1 IBT       0.076700
     55 H21          5.1590    -5.8070     3.3660 ha         1 IBT       0.152000
     56 H22          5.8630    -4.1010     5.8290 ha         1 IBT       0.121500
     57 H23          5.0650    -5.7770     5.8140 ha         1 IBT       0.121500
@<TRIPOS>BOND
     1     1     2 1   
     2     1    34 1   
     3     1    35 1   
     4     2     3 ar  
     5     2    10 ar  
     6     3     4 ar  
     7     4     5 ar  
     8     4    36 1   
     9     5     6 ar  
    10     6     7 1   
    11     6    10 ar  
    12     7     8 1   
    13     7    24 1   
    14     8     9 2   
    15     9    10 1   
    16     9    11 1   
    17    11    12 ar  
    18    11    16 ar  
    19    12    13 ar  
    20    12    37 1   
    21    13    14 ar  
    22    13    38 1   
    23    14    15 ar  
    24    14    17 1   
    25    15    16 ar  
    26    15    39 1   
    27    16    40 1   
    28    17    18 1   
    29    18    19 ar  
    30    18    23 ar  
    31    19    20 ar  
    32    19    41 1   
    33    20    21 ar  
    34    20    42 1   
    35    21    22 ar  
    36    21    43 1   
    37    22    23 ar  
    38    22    44 1   
    39    23    45 1   
    40    24    25 1   
    41    24    29 1   
    42    24    46 1   
    43    25    26 1   
    44    25    47 1   
    45    25    48 1   
    46    26    27 1   
    47    26    49 1   
    48    26    50 1   
    49    27    28 1   
    50    27    51 1   
    51    27    52 1   
    52    28    29 1   
    53    28    30 1   
    54    29    53 1   
    55    29    54 1   
    56    30    31 2   
    57    30    32 1   
    58    32    33 2   
    59    32    55 1   
    60    33    56 1   
    61    33    57 1   
@<TRIPOS>SUBSTRUCTURE
     1 IBT         1 TEMP              0 ****  ****    0 ROOT
